Version 4
SHEET 1 3240 680
WIRE 1872 -272 1664 -272
WIRE 1968 -272 1872 -272
WIRE 1968 -240 1968 -272
WIRE 1872 -208 1872 -272
WIRE 368 -192 368 -240
WIRE 480 -192 480 -240
WIRE 2208 -176 2160 -176
WIRE 2336 -176 2288 -176
WIRE 2560 -176 2512 -176
WIRE 2688 -176 2640 -176
WIRE 3040 -176 2736 -176
WIRE 704 -112 672 -112
WIRE 816 -112 784 -112
WIRE 1232 -112 1088 -112
WIRE 1440 -112 1296 -112
WIRE 1968 -112 1968 -160
WIRE 2032 -112 1968 -112
WIRE 2128 -112 2112 -112
WIRE 1968 -96 1968 -112
WIRE 2256 -64 2256 -96
WIRE 2800 -64 2800 -80
WIRE 1408 -48 1264 -48
WIRE 2128 -48 2128 -112
WIRE 2160 -48 2160 -176
WIRE 2160 -48 2128 -48
WIRE 2224 -48 2160 -48
WIRE 2592 -48 2592 -80
WIRE 2736 -48 2736 -176
WIRE 2768 -48 2736 -48
WIRE 192 -32 112 -32
WIRE 352 -32 272 -32
WIRE 2336 -32 2336 -176
WIRE 2336 -32 2288 -32
WIRE 2384 -32 2336 -32
WIRE 2512 -32 2512 -176
WIRE 2512 -32 2464 -32
WIRE 2560 -32 2512 -32
WIRE 2944 -32 2832 -32
WIRE 3040 -32 3040 -176
WIRE 3040 -32 3008 -32
WIRE 3104 -32 3040 -32
WIRE 3168 -32 3104 -32
WIRE 1360 -16 1360 -32
WIRE 2224 -16 2192 -16
WIRE 2688 -16 2688 -176
WIRE 2688 -16 2624 -16
WIRE 2768 -16 2688 -16
WIRE 880 0 880 -32
WIRE 1264 0 1264 -48
WIRE 1328 0 1264 0
WIRE 1792 0 1792 -16
WIRE 2560 0 2512 0
WIRE 816 16 816 -112
WIRE 848 16 816 16
WIRE 1408 16 1408 -48
WIRE 1408 16 1392 16
WIRE 1440 16 1440 -112
WIRE 1440 16 1408 16
WIRE 1504 16 1440 16
WIRE 1536 16 1504 16
WIRE 1664 16 1664 -272
WIRE 1664 16 1616 16
WIRE 1760 16 1664 16
WIRE 2192 16 2192 -16
WIRE 3040 16 3040 -32
WIRE 3104 16 3104 -32
WIRE 1008 32 912 32
WIRE 1088 32 1088 -112
WIRE 1120 32 1088 32
WIRE 1264 32 1200 32
WIRE 1328 32 1264 32
WIRE 1872 32 1872 -144
WIRE 1872 32 1824 32
WIRE 1968 32 1968 -32
WIRE 1968 32 1872 32
WIRE 576 48 464 48
WIRE 672 48 672 -112
WIRE 672 48 640 48
WIRE 704 48 672 48
WIRE 784 48 768 48
WIRE 848 48 784 48
WIRE 1760 48 1744 48
WIRE 2512 64 2512 0
WIRE 1264 80 1264 32
WIRE 1744 80 1744 48
WIRE 112 96 112 -32
WIRE 160 96 112 96
WIRE 352 96 352 -32
WIRE 352 96 288 96
WIRE 3040 112 3040 80
WIRE 3104 112 3104 96
WIRE -64 128 -128 128
WIRE 160 128 16 128
WIRE 352 128 288 128
WIRE 784 128 784 48
WIRE -128 144 -128 128
WIRE 160 160 16 160
WIRE 352 160 288 160
WIRE 1504 160 1504 16
WIRE 1824 160 1504 160
WIRE 2160 160 2160 -48
WIRE 2160 160 1904 160
WIRE 160 192 128 192
WIRE 320 192 288 192
WIRE 1264 192 1264 144
WIRE 128 208 128 192
WIRE 352 208 352 160
WIRE 464 208 464 48
WIRE 464 208 352 208
WIRE -112 224 -144 224
WIRE 16 224 16 160
WIRE 16 224 -32 224
WIRE -144 240 -144 224
WIRE 784 240 784 208
WIRE 320 256 320 192
WIRE 656 256 320 256
WIRE 640 272 512 272
WIRE 576 352 576 320
WIRE 512 368 512 272
WIRE 544 368 512 368
WIRE 640 384 640 272
WIRE 640 384 608 384
WIRE 656 384 656 256
WIRE 656 384 640 384
WIRE 448 400 368 400
WIRE 512 400 448 400
WIRE 544 400 512 400
WIRE 368 448 368 400
WIRE 512 448 512 400
WIRE 448 464 448 400
WIRE 640 528 640 384
FLAG 576 416 0
FLAG 576 320 V+
FLAG 352 128 V+
FLAG 448 528 0
FLAG 512 528 0
FLAG 368 528 V+
FLAG 640 528 Vref
FLAG 368 -112 0
FLAG 480 -112 0
FLAG 880 64 0
FLAG 880 -32 +V
FLAG 784 240 Vref
FLAG 1360 48 0
FLAG 1264 192 Vref
FLAG 1360 -32 V+
FLAG 1792 64 0
FLAG 1744 80 Vref
FLAG 1792 -16 V+
FLAG 2256 0 0
FLAG 2256 -96 V+
FLAG 2192 16 Vref
FLAG 2592 16 0
FLAG 2592 -80 V+
FLAG 2512 64 Vref
FLAG 2800 0 0
FLAG 2800 -80 V+
FLAG 3040 112 0
FLAG 3104 112 0
FLAG 3168 -32 Vout
FLAG 368 -240 V+
FLAG 480 -240 Vref
FLAG -128 144 0
FLAG -144 240 0
FLAG 128 208 0
SYMBOL voltage 32 128 R90
WINDOW 0 -32 56 VBottom 2
WINDOW 3 32 56 VTop 2
SYMATTR InstName V1
SYMATTR Value 0
SYMBOL voltage -16 224 R90
WINDOW 0 -32 56 VBottom 2
WINDOW 3 32 56 VTop 2
SYMATTR InstName V2
SYMATTR Value SINE(0 1mV 200)
SYMBOL res 288 -48 R90
WINDOW 0 0 56 VBottom 2
WINDOW 3 32 56 VTop 2
SYMATTR InstName R1
SYMATTR Value 100
SYMBOL UniversalOpAmp2 576 384 R0
SYMATTR InstName VB-LM741
SYMATTR Value2 Avol=0.14Meg GBW=1.2Meg Slew=0.5Meg
SYMATTR SpiceLine Ilimit=25m Rail=0 Vos=0.2e-3
SYMATTR SpiceLine2 En=0 Enk=0 In=0 Ink=0 Rin=10Meg
SYMBOL res 496 432 R0
SYMATTR InstName R2
SYMATTR Value 1k
SYMBOL cap 432 464 R0
SYMATTR InstName C2
SYMATTR Value 1µ
SYMBOL res 352 432 R0
SYMATTR InstName R3
SYMATTR Value 1k
SYMBOL voltage 368 -208 R0
SYMATTR InstName V+
SYMATTR Value 5
SYMBOL voltage 480 -208 R0
SYMATTR InstName Vref
SYMBOL UniversalOpAmp2 880 32 R0
SYMATTR InstName HP-LM741
SYMATTR Value2 Avol=0.14Meg GBW=1.2Meg Slew=0.5Meg
SYMATTR SpiceLine Ilimit=25m Rail=0 Vos=0.2e-3
SYMATTR SpiceLine2 En=0 Enk=0 In=0 Ink=0 Rin=10Meg
SYMBOL cap 640 32 R90
WINDOW 0 0 32 VBottom 2
WINDOW 3 32 32 VTop 2
SYMATTR InstName C1
SYMATTR Value 0.1µ
SYMBOL cap 768 32 R90
WINDOW 0 0 32 VBottom 2
WINDOW 3 32 32 VTop 2
SYMATTR InstName C3
SYMATTR Value 0.1µ
SYMBOL res 768 112 R0
SYMATTR InstName R4
SYMATTR Value 500k
SYMBOL res 800 -128 R90
WINDOW 0 0 56 VBottom 2
WINDOW 3 32 56 VTop 2
SYMATTR InstName R5
SYMATTR Value 50k
SYMBOL res 1104 16 R90
WINDOW 0 0 56 VBottom 2
WINDOW 3 32 56 VTop 2
SYMATTR InstName R6
SYMATTR Value 27k
SYMBOL res 1216 16 R90
WINDOW 0 0 56 VBottom 2
WINDOW 3 32 56 VTop 2
SYMATTR InstName R7
SYMATTR Value 27k
SYMBOL UniversalOpAmp2 1360 16 R0
SYMATTR InstName LP-LM741
SYMATTR Value2 Avol=0.14Meg GBW=1.2Meg Slew=0.5Meg
SYMATTR SpiceLine Ilimit=25m Rail=0 Vos=0.2e-3
SYMATTR SpiceLine2 En=0 Enk=0 In=0 Ink=0 Rin=10Meg
SYMBOL cap 1248 80 R0
SYMATTR InstName C4
SYMATTR Value 3.3n
SYMBOL cap 1296 -128 R90
WINDOW 0 0 32 VBottom 2
WINDOW 3 32 32 VTop 2
SYMATTR InstName C5
SYMATTR Value 33n
SYMBOL res 1632 0 R90
WINDOW 0 0 56 VBottom 2
WINDOW 3 32 56 VTop 2
SYMATTR InstName R8
SYMATTR Value 10k
SYMBOL res 1920 144 R90
WINDOW 0 0 56 VBottom 2
WINDOW 3 32 56 VTop 2
SYMATTR InstName R9
SYMATTR Value 20k
SYMBOL UniversalOpAmp2 1792 32 R0
SYMATTR InstName HWR-LM741
SYMATTR Value2 Avol=0.14Meg GBW=1.2Meg Slew=0.5Meg
SYMATTR SpiceLine Ilimit=25m Rail=0 Vos=0.2e-3
SYMATTR SpiceLine2 En=0 Enk=0 In=0 Ink=0 Rin=10Meg
SYMBOL diode 1856 -208 R0
SYMATTR InstName D1
SYMATTR Value 1N4148
SYMBOL res 1952 -256 R0
SYMATTR InstName R10
SYMATTR Value 10k
SYMBOL diode 1984 -32 R180
WINDOW 0 24 64 Left 2
WINDOW 3 24 0 Left 2
SYMATTR InstName D2
SYMATTR Value 1N4148
SYMBOL res 2128 -128 R90
WINDOW 0 0 56 VBottom 2
WINDOW 3 32 56 VTop 2
SYMATTR InstName R11
SYMATTR Value 10k
SYMBOL res 2304 -192 R90
WINDOW 0 0 56 VBottom 2
WINDOW 3 32 56 VTop 2
SYMATTR InstName R12
SYMATTR Value 20k
SYMBOL UniversalOpAmp2 2256 -32 R0
SYMATTR InstName SA-LM741
SYMATTR Value2 Avol=0.14Meg GBW=1.2Meg Slew=0.5Meg
SYMATTR SpiceLine Ilimit=25m Rail=0 Vos=0.2e-3
SYMATTR SpiceLine2 En=0 Enk=0 In=0 Ink=0 Rin=10Meg
SYMBOL res 2480 -48 R90
WINDOW 0 0 56 VBottom 2
WINDOW 3 32 56 VTop 2
SYMATTR InstName R13
SYMATTR Value 10k
SYMBOL res 2656 -192 R90
WINDOW 0 0 56 VBottom 2
WINDOW 3 32 56 VTop 2
SYMATTR InstName R14
SYMATTR Value 20k
SYMBOL UniversalOpAmp2 2592 -16 R0
SYMATTR InstName IA-LM741
SYMATTR Value2 Avol=0.14Meg GBW=1.2Meg Slew=0.5Meg
SYMATTR SpiceLine Ilimit=25m Rail=0 Vos=0.2e-3
SYMATTR SpiceLine2 En=0 Enk=0 In=0 Ink=0 Rin=10Meg
SYMBOL UniversalOpAmp2 2800 -32 R0
SYMATTR InstName PD-LM741
SYMATTR Value2 Avol=0.14Meg GBW=1.2Meg Slew=0.5Meg
SYMATTR SpiceLine Ilimit=25m Rail=0 Vos=0.2e-3
SYMATTR SpiceLine2 En=0 Enk=0 In=0 Ink=0 Rin=10Meg
SYMBOL diode 2944 -16 R270
WINDOW 0 32 32 VTop 2
WINDOW 3 0 32 VBottom 2
SYMATTR InstName D3
SYMATTR Value 1N4148
SYMBOL cap 3024 16 R0
SYMATTR InstName C6
SYMATTR Value 1µ
SYMBOL res 3088 0 R0
SYMATTR InstName R15
SYMATTR Value 300k
SYMBOL AD623 256 288 R0
SYMATTR InstName AI
